@<TRIPOS>MOLECULE
ADE
   15    16     1     0     0
SMALL
resp


@<TRIPOS>ATOM
      1 N9           2.0970     0.6100    -0.0000 na         1 ADE      -0.599202
      2 C8           2.3320    -0.7320    -0.0000 cc         1 ADE       0.295900
      3 N7           1.2030    -1.3800    -0.0000 nd         1 ADE      -0.619499
      4 C5           0.1760    -0.4980     0.0050 ca         1 ADE      -0.050527
      5 C6          -1.2230    -0.6120    -0.0000 ca         1 ADE       0.810441
      6 N6          -1.8330    -1.8540    -0.0000 nh         1 ADE      -1.002969
      7 N1          -1.9490     0.5010    -0.0000 nb         1 ADE      -0.819389
      8 C2          -1.3760     1.6910    -0.0000 ca         1 ADE       0.623468
      9 N3          -0.0690     1.8460    -0.0000 nb         1 ADE      -0.880806
     10 C4           0.7370     0.7900    -0.0000 ca         1 ADE       0.755701
     11 H1           2.7690     1.3100    -0.0000 hn         1 ADE       0.400414
     12 H2           3.3100    -1.1900    -0.0020 h5         1 ADE       0.142852
     13 H3          -2.8010    -1.9200    -0.0010 hn         1 ADE       0.433219
     14 H4          -1.2930    -2.6600    -0.0040 hn         1 ADE       0.433219
     15 H5          -2.0040     2.5700    -0.0000 h5         1 ADE       0.077180
@<TRIPOS>BOND
     1     1     2 1   
     2     1    10 1   
     3     1    11 1   
     4     2     3 2   
     5     2    12 1   
     6     3     4 1   
     7     4     5 ar  
     8     4    10 ar  
     9     5     6 1   
    10     5     7 ar  
    11     6    13 1   
    12     6    14 1   
    13     7     8 ar  
    14     8     9 ar  
    15     8    15 1   
    16     9    10 ar  
@<TRIPOS>SUBSTRUCTURE
     1 ADE         1 TEMP              0 ****  ****    0 ROOT
